@<TRIPOS>MOLECULE
RES
25 25 1 0 1
SMALL
NO_CHARGES
@<TRIPOS>CRYSIN
   12.5130    12.3771     7.4149    90.0000    90.0000    90.0000  1  1
@<TRIPOS>ATOM
       1 C           -0.2264     1.8642     0.3237 C             1 RES     
       2 C           -0.7608     0.5182    -0.1908 C             1 RES     
       3 N            1.2364     1.7738     0.2153 N             1 RES     
       4 N            0.4032    -0.1931    -0.7534 N             1 RES     
       5 C            1.4756     0.8123    -0.8730 C             1 RES     
       6 C            0.7981    -1.3291     0.1045 C             1 RES     
       7 H           -0.0282    -2.0415     0.1783 H             1 RES     
       8 H            1.0578    -0.9781     1.1075 H             1 RES     
       9 H            1.6624    -1.8386    -0.3305 H             1 RES     
      10 C            1.8701     3.0925    -0.0017 C             1 RES     
      11 C            3.4082     3.0113     0.1000 C             1 RES     
      12 H            1.5096     3.7864     0.7633 H             1 RES     
      13 H            1.5828     3.4823    -0.9830 H             1 RES     
      14 C            4.0449     4.4051    -0.0769 C             1 RES     
      15 H            3.7999     2.3370    -0.6654 H             1 RES     
      16 H            3.6853     2.6033     1.0756 H             1 RES     
      17 C            5.5785     4.3413     0.0466 C             1 RES     
      18 H            3.6517     5.0891     0.6792 H             1 RES     
      19 H            3.7789     4.8085    -1.0571 H             1 RES     
      20 H            5.8709     3.9718     1.0323 H             1 RES     
      21 H            6.0099     5.3356    -0.0886 H             1 RES     
      22 H            5.9999     3.6784    -0.7127 H             1 RES     
      23 H           -0.5301     2.0469     1.3578 H             1 RES     
      24 H           -1.5031     0.6976    -0.9730 H             1 RES     
      25 H            2.4778     0.3609    -0.8123 H             1 RES     
@<TRIPOS>BOND
       1        3        1 1
       2        6        7 1
       3       14       19 1
       4       10       12 1
       5       17       14 1
       6        5        4 1
       7       11       10 1
       8        6        4 1
       9       17       22 1
      10        2        4 1
      11       13       10 1
      12       14       18 1
      13        5       25 1
      14        6        9 1
      15       17       20 1
      16       16       11 1
      17        2        1 1
      18       11       14 1
      19        2       24 1
      20        6        8 1
      21       17       21 1
      22        5        3 1
      23        3       10 1
      24       15       11 1
      25        1       23 1
@<TRIPOS>SUBSTRUCTURE
       1 RES             1 RESIDUE    0 **** ROOT      0
