@<TRIPOS>MOLECULE
*****
 12 11 0 0 0
SMALL
GASTEIGER

@<TRIPOS>ATOM
      1 C          -4.1206   -0.3884   -0.0027 C.3     1  UNL1       -0.0644
      2 C          -2.7596    0.3030   -0.0125 C.3     1  UNL1       -0.0431
      3 H          -4.2452   -1.0023    0.9144 H       1  UNL1        0.0230
      4 H          -4.2426   -1.0344   -0.8982 H       1  UNL1        0.0230
      5 H          -4.9152    0.3871   -0.0175 H       1  UNL1        0.0230
      6 C          -1.5898   -0.6895   -0.0032 C.3     1  UNL1        0.0345
      7 H          -2.6925    0.9572    0.8833 H       1  UNL1        0.0272
      8 H          -2.6932    0.9351   -0.9251 H       1  UNL1        0.0272
      9 C          -0.3270    0.0599   -0.0021 C.1     1  UNL1        0.0625
     10 H          -1.6260   -1.3407   -0.9010 H       1  UNL1        0.0418
     11 H          -1.6271   -1.3250    0.9064 H       1  UNL1        0.0418
     12 N           0.6672    0.6521   -0.0047 N.1     1  UNL1       -0.1966
@<TRIPOS>BOND
     1     1     2    1
     2     1     3    1
     3     1     4    1
     4     1     5    1
     5     2     6    1
     6     2     7    1
     7     2     8    1
     8     6     9    1
     9     6    10    1
    10     6    11    1
    11     9    12    3
