@<TRIPOS>MOLECULE
*****
 6 5 0 0 0
SMALL
GASTEIGER

@<TRIPOS>ATOM
      1 C          -1.1800    0.8468    0.0000 C.3     1  UNL1        0.0232
      2 C           0.2827    0.8939    0.0000 C.1     1  UNL1        0.0591
      3 H          -1.5839    1.8794   -0.0353 H       1  UNL1        0.0382
      4 H          -1.5344    0.3431    0.9228 H       1  UNL1        0.0382
      5 H          -1.5325    0.2820   -0.8874 H       1  UNL1        0.0382
      6 N           1.4393    0.9312   -0.0000 N.1     1  UNL1       -0.1969
@<TRIPOS>BOND
     1     1     2    1
     2     1     3    1
     3     1     4    1
     4     1     5    1
     5     2     6    3
