@<TRIPOS>MOLECULE
*****
 6 5 0 0 0
SMALL
GASTEIGER

@<TRIPOS>ATOM
      1 C          -0.7574    0.9097    0.0011 C.3     1  UNL1        0.0330
      2 O           0.6407    0.9082   -0.0127 O.3     1  UNL1       -0.3982
      3 H          -1.1483   -0.0550   -0.3890 H       1  UNL1        0.0521
      4 H          -1.1483    1.7643   -0.5926 H       1  UNL1        0.0521
      5 H          -1.1062    1.0269    1.0478 H       1  UNL1        0.0521
      6 H           0.9042    0.8018   -0.9634 H       1  UNL1        0.2090
@<TRIPOS>BOND
     1     1     2    1
     2     1     3    1
     3     1     4    1
     4     1     5    1
     5     2     6    1
