@<TRIPOS>MOLECULE
*****
 5 4 0 0 0
SMALL
GASTEIGER

@<TRIPOS>ATOM
      1 C          -0.6746    0.2713    0.0000 C.3     1  UNL1        0.0110
      2 CL          1.1034    0.2713   -0.0000 Cl      1  UNL1       -0.1291
      3 H          -1.0444   -0.3984    0.8034 H       1  UNL1        0.0394
      4 H          -1.0444   -0.0897   -0.9817 H       1  UNL1        0.0394
      5 H          -1.0444    1.3019    0.1783 H       1  UNL1        0.0394
@<TRIPOS>BOND
     1     1     2    1
     2     1     3    1
     3     1     4    1
     4     1     5    1
