@<TRIPOS>MOLECULE
*****
 5 4 0 0 0
SMALL
GASTEIGER

@<TRIPOS>ATOM
      1 C          -0.8238    0.5230    0.0298 C.3     1  UNL1        0.0970
      2 Cl          0.9542    0.5230    0.0298 Cl      1  UNL1       -0.1083
      3 H          -1.1936    1.2456   -0.7264 H       1  UNL1        0.0597
      4 H          -1.1936    0.8167    1.0337 H       1  UNL1        0.0597
      5 Cl         -1.4165   -1.1056   -0.3670 Cl      1  UNL1       -0.1083
@<TRIPOS>BOND
     1     1     2    1
     2     1     3    1
     3     1     4    1
     4     1     5    1
