@<TRIPOS>MOLECULE
*****
 12 11 0 0 0
SMALL
GASTEIGER

@<TRIPOS>ATOM
      1 N           3.5163    0.2677   -0.0046 N.am    1  UNL1       -0.3101
      2 C           4.3910    1.4302    0.0003 C.3     1  UNL1        0.0026
      3 H           3.8309    2.3884   -0.0303 H       1  UNL1        0.0428
      4 H           5.0605    1.3975   -0.8852 H       1  UNL1        0.0428
      5 H           5.0115    1.4266    0.9214 H       1  UNL1        0.0428
      6 C           4.1308   -1.0467    0.0332 C.3     1  UNL1        0.0026
      7 H           4.7401   -1.1490    0.9562 H       1  UNL1        0.0428
      8 H           4.7891   -1.1782   -0.8516 H       1  UNL1        0.0428
      9 H           3.3754   -1.8624    0.0259 H       1  UNL1        0.0428
     10 C           2.1565    0.3838   -0.0434 C.2     1  UNL1        0.2020
     11 O           1.6113    1.4768   -0.0758 O.2     1  UNL1       -0.2793
     12 H           1.5292   -0.5029   -0.0461 H       1  UNL1        0.1253
@<TRIPOS>BOND
     1     1     2    1
     2     2     3    1
     3     2     4    1
     4     2     5    1
     5     1     6    1
     6     6     7    1
     7     6     8    1
     8     6     9    1
     9     1    10   am
    10    10    11    2
    11    10    12    1
