@<TRIPOS>MOLECULE
*****
 10 9 0 0 0
SMALL
GASTEIGER

@<TRIPOS>ATOM
      1 S           1.0935    0.5977    0.8287 S.O     1  UNL1        0.0159
      2 O           1.0517    1.6710   -0.2717 O.2     1  UNL1       -0.2577
      3 C          -0.3303   -0.3110    0.1365 C.3     1  UNL1        0.0115
      4 H          -0.3472   -1.3397    0.5524 H       1  UNL1        0.0365
      5 H          -0.2857   -0.3668   -0.9724 H       1  UNL1        0.0365
      6 H          -1.2678    0.2022    0.4345 H       1  UNL1        0.0365
      7 C           2.3479   -0.3966   -0.0486 C.3     1  UNL1        0.0115
      8 H           3.3482    0.0548    0.1154 H       1  UNL1        0.0365
      9 H           2.1479   -0.4448   -1.1405 H       1  UNL1        0.0365
     10 H           2.3566   -1.4261    0.3657 H       1  UNL1        0.0365
@<TRIPOS>BOND
     1     1     2    2
     2     1     3    1
     3     3     4    1
     4     3     5    1
     5     3     6    1
     6     1     7    1
     7     7     8    1
     8     7     9    1
     9     7    10    1
