@<TRIPOS>MOLECULE
*****
 20 19 0 0 0
SMALL
GASTEIGER

@<TRIPOS>ATOM
      1 C          -3.1939    1.2034   -0.1847 C.3     1  UNL1       -0.0653
      2 C          -1.8648    1.1766    0.5646 C.3     1  UNL1       -0.0559
      3 H          -3.2002    0.4355   -0.9873 H       1  UNL1        0.0230
      4 H          -3.3627    2.2045   -0.6357 H       1  UNL1        0.0230
      5 H          -4.0235    0.9870    0.5209 H       1  UNL1        0.0230
      6 C          -0.6921    1.4716   -0.3776 C.3     1  UNL1       -0.0533
      7 H          -1.7322    0.1725    1.0236 H       1  UNL1        0.0263
      8 H          -1.8944    1.9380    1.3745 H       1  UNL1        0.0263
      9 C           0.6413    1.4437    0.3788 C.3     1  UNL1       -0.0533
     10 H          -0.8332    2.4755   -0.8358 H       1  UNL1        0.0265
     11 H          -0.6709    0.7086   -1.1870 H       1  UNL1        0.0265
     12 C           1.8140    1.7387   -0.5634 C.3     1  UNL1       -0.0559
     13 H           0.7824    0.4398    0.8370 H       1  UNL1        0.0265
     14 H           0.6201    2.2068    1.1882 H       1  UNL1        0.0265
     15 C           3.1431    1.7119    0.1859 C.3     1  UNL1       -0.0653
     16 H           1.6814    2.7428   -1.0224 H       1  UNL1        0.0263
     17 H           1.8436    0.9774   -1.3732 H       1  UNL1        0.0263
     18 H           3.1494    2.4799    0.9885 H       1  UNL1        0.0230
     19 H           3.9727    1.9284   -0.5197 H       1  UNL1        0.0230
     20 H           3.3119    0.7109    0.6370 H       1  UNL1        0.0230
@<TRIPOS>BOND
     1     1     2    1
     2     1     3    1
     3     1     4    1
     4     1     5    1
     5     2     6    1
     6     2     7    1
     7     2     8    1
     8     6     9    1
     9     6    10    1
    10     6    11    1
    11     9    12    1
    12     9    13    1
    13     9    14    1
    14    12    15    1
    15    12    16    1
    16    12    17    1
    17    15    18    1
    18    15    19    1
    19    15    20    1
