@<TRIPOS>MOLECULE
*****
 15 15 0 0 0
SMALL
GASTEIGER

@<TRIPOS>ATOM
      1 C          -3.2982    0.3716    0.0629 C.3     1  UNL1        0.1292
      2 C          -1.8435    0.5566    0.5543 C.3     1  UNL1        0.1343
      3 O          -3.7337    1.6477   -0.2043 O.2     1  UNL1       -0.4609
      4 H          -3.9274   -0.0971    0.8496 H       1  UNL1        0.0735
      5 H          -3.3602   -0.2229   -0.8747 H       1  UNL1        0.0735
      6 O          -1.6042    1.9048    0.4251 O.2     1  UNL1       -0.4582
      7 C          -2.7231    2.5017   -0.0026 C.2     1  UNL1        0.2744
      8 C          -0.8388   -0.2519   -0.2648 C.3     1  UNL1       -0.0244
      9 H          -1.7604    0.2856    1.6299 H       1  UNL1        0.0765
     10 H           0.1901   -0.0569    0.1048 H       1  UNL1        0.0266
     11 H          -0.8930    0.0323   -1.3377 H       1  UNL1        0.0266
     12 H          -1.0539   -1.3369   -0.1644 H       1  UNL1        0.0266
     13 C          -2.8214    3.8149   -0.2062 C.2     1  UNL1       -0.0184
     14 H          -3.7541    4.2475   -0.5537 H       1  UNL1        0.0604
     15 H          -1.9695    4.4628   -0.0263 H       1  UNL1        0.0604
@<TRIPOS>BOND
     1     1     2    1
     2     1     3    1
     3     1     4    1
     4     1     5    1
     5     2     6    1
     6     3     7    1
     7     6     7    1
     8     2     8    1
     9     2     9    1
    10     8    10    1
    11     8    11    1
    12     8    12    1
    13     7    13    2
    14    13    14    1
    15    13    15    1
