@<TRIPOS>MOLECULE
*****
 8 7 0 0 0
SMALL
GASTEIGER

@<TRIPOS>ATOM
      1 C          -3.1496    0.7181    0.0000 C.3     1  UNL1        0.2199
      2 C           1.5271    0.8138    0.0000 C.3     1  UNL1        0.1540
      3 CL         -3.5192    1.3464    0.7832 Cl      1  UNL1       -0.0805
      4 CL         -3.4858   -0.2852    0.1590 Cl      1  UNL1       -0.0805
      5 CL         -3.5136    1.0711   -0.9422 Cl      1  UNL1       -0.0805
      6 CL          1.8910    0.4608    0.9422 Cl      1  UNL1       -0.1001
      7 CL          1.8633    1.8171   -0.1590 Cl      1  UNL1       -0.1001
      8 H           1.8967    0.1855   -0.7832 H       1  UNL1        0.0677
@<TRIPOS>BOND
     1     1     2    1
     2     1     3    1
     3     1     4    1
     4     1     5    1
     5     2     6    1
     6     2     7    1
     7     2     8    1
