@<TRIPOS>MOLECULE
*****
 17 16 0 0 0
SMALL
GASTEIGER

@<TRIPOS>ATOM
      1 C          -4.2950    0.7135   -0.1803 C.3     1  UNL1       -0.0653
      2 C          -3.0367   -0.0100    0.2908 C.3     1  UNL1       -0.0559
      3 H          -4.3277    1.7427    0.2367 H       1  UNL1        0.0230
      4 H          -5.1938    0.1610    0.1658 H       1  UNL1        0.0230
      5 H          -4.3165    0.7683   -1.2897 H       1  UNL1        0.0230
      6 C          -1.7715    0.7238   -0.1684 C.3     1  UNL1       -0.0536
      7 H          -3.0408   -1.0423   -0.1224 H       1  UNL1        0.0263
      8 H          -3.0520   -0.0699    1.4010 H       1  UNL1        0.0263
      9 C          -0.5103   -0.0065    0.3071 C.3     1  UNL1       -0.0559
     10 H          -1.7756    1.7566    0.2454 H       1  UNL1        0.0265
     11 H          -1.7644    0.7833   -1.2793 H       1  UNL1        0.0265
     12 C           0.7519    0.7205   -0.1477 C.3     1  UNL1       -0.0653
     13 H          -0.4981   -1.0388   -0.1059 H       1  UNL1        0.0263
     14 H          -0.5093   -0.0663    1.4174 H       1  UNL1        0.0263
     15 H           0.7876    0.7752   -1.2567 H       1  UNL1        0.0230
     16 H           1.6477    0.1704    0.2101 H       1  UNL1        0.0230
     17 H           0.7764    1.7497    0.2697 H       1  UNL1        0.0230
@<TRIPOS>BOND
     1     1     2    1
     2     1     3    1
     3     1     4    1
     4     1     5    1
     5     2     6    1
     6     2     7    1
     7     2     8    1
     8     6     9    1
     9     6    10    1
    10     6    11    1
    11     9    12    1
    12     9    13    1
    13     9    14    1
    14    12    15    1
    15    12    16    1
    16    12    17    1
