@<TRIPOS>MOLECULE
*****
 5 4 0 0 0
SMALL
GASTEIGER

@<TRIPOS>ATOM
      1 C          -0.8272   -0.1436    0.0000 C.3     1  UNL1        0.1805
      2 Cl          0.2428   -0.1436    0.0000 Cl      1  UNL1       -0.0870
      3 Cl         -1.1838   -0.7707    0.7902 Cl      1  UNL1       -0.0870
      4 H          -1.1838   -0.5144   -0.9382 H       1  UNL1        0.0806
      5 Cl         -1.1838    0.8543    0.1480 Cl      1  UNL1       -0.0870
@<TRIPOS>BOND
     1     1     2    1
     2     1     3    1
     3     1     4    1
     4     1     5    1
