@<TRIPOS>MOLECULE
RES
15 14 1 0 1
SMALL
NO_CHARGES
@<TRIPOS>CRYSIN
   11.6001     8.9591     9.8308    90.0000    90.0000    90.0000  1  1
@<TRIPOS>ATOM
       1 C            0.5109     0.5356    -0.7458 C             1 RES     
       2 F            0.3286    -0.7930    -0.6285 F             1 RES     
       3 F            1.2621     0.7458    -1.8422 F             1 RES     
       4 F            1.2183     0.9436     0.3220 F             1 RES     
       5 S           -1.0406     1.4234    -0.8355 S             1 RES     
       6 O           -1.7252     0.8092    -2.1315 O             1 RES     
       7 O           -0.5667     2.8258    -1.4149 O             1 RES     
       8 N           -2.1527     0.3424    -0.3267 N             1 RES     
       9 S           -2.7918     0.2635     1.1735 S             1 RES     
      10 O           -2.8126    -0.1818     2.6993 O             1 RES     
      11 O           -3.0908    -1.1333     0.4769 O             1 RES     
      12 C           -4.3576     1.1186     1.0310 C             1 RES     
      13 F           -5.3380     0.4612     1.6771 F             1 RES     
      14 F           -4.7422     1.2612    -0.2510 F             1 RES     
      15 F           -4.2651     2.3485     1.5658 F             1 RES     
@<TRIPOS>BOND
       1        9       12 1
       2        5        8 1
       3        4        1 1
       4       13       12 1
       5        5        7 1
       6        1        2 1
       7       14       12 1
       8       10        9 1
       9        8        9 1
      10        5        6 1
      11        5        1 1
      12       11        9 1
      13       15       12 1
      14        3        1 1
@<TRIPOS>SUBSTRUCTURE
       1 RES             1 RESIDUE    0 **** ROOT      0
