@<TRIPOS>MOLECULE
*****
 15 14 0 0 0
SMALL
GASTEIGER

@<TRIPOS>ATOM
      1 N          -0.8773    1.0420   -0.3030 N.3     1  UNL1        0.0775
      2 S           0.7782    0.9166   -0.9026 S.O2    1  UNL1        0.1638
      3 S          -0.7817    1.0774    1.4592 S.O2    1  UNL1        0.1638
      4 O          -1.7617    2.2228    1.1524 O.2     1  UNL1       -0.1468
      5 O          -1.6961   -0.1299    1.1886 O.2     1  UNL1       -0.1468
      6 O           0.0366   -0.1404   -1.7388 O.2     1  UNL1       -0.1468
      7 O           0.2625    2.1973   -1.5815 O.2     1  UNL1       -0.1468
      8 C           1.6982    0.9445   -2.5349 C.3     1  UNL1        0.5387
      9 F           2.4134   -0.2353   -2.6707 F       1  UNL1       -0.1492
     10 F           2.6205    1.9796   -2.5195 F       1  UNL1       -0.1492
     11 F           0.8968    1.0955   -3.6698 F       1  UNL1       -0.1492
     12 C          -1.9306    1.0613    2.9396 C.3     1  UNL1        0.5387
     13 F          -1.6958    2.1923    3.7060 F       1  UNL1       -0.1492
     14 F          -1.6344   -0.0364    3.7331 F       1  UNL1       -0.1492
     15 F          -3.2943    1.0214    2.6369 F       1  UNL1       -0.1492
@<TRIPOS>BOND
     1     1     2    1
     2     1     3    1
     3     3     4    2
     4     3     5    2
     5     2     6    2
     6     2     7    2
     7     2     8    1
     8     8     9    1
     9     8    10    1
    10     8    11    1
    11     3    12    1
    12    12    13    1
    13    12    14    1
    14    12    15    1
