@<TRIPOS>MOLECULE
*****
 13 13 0 0 0
SMALL
GASTEIGER

@<TRIPOS>ATOM
      1 C          -2.6781   -0.2319   -0.1718 C.3     1  UNL1        0.0477
      2 C          -2.1651   -1.5832    0.2912 C.3     1  UNL1       -0.0274
      3 C          -0.7730   -1.4953   -0.2426 C.3     1  UNL1       -0.0274
      4 H          -2.7601   -2.4513   -0.0639 H       1  UNL1        0.0288
      5 H          -2.1241   -1.5996    1.4054 H       1  UNL1        0.0288
      6 C          -0.4484   -0.0757    0.1852 C.3     1  UNL1        0.0477
      7 H          -0.8095   -1.5453   -1.3559 H       1  UNL1        0.0288
      8 H          -0.0666   -2.2656    0.1333 H       1  UNL1        0.0288
      9 O          -1.6211    0.6958   -0.0040 O.3     1  UNL1       -0.3798
     10 H          -3.5862    0.0614    0.3961 H       1  UNL1        0.0560
     11 H          -2.9220   -0.2737   -1.2575 H       1  UNL1        0.0560
     12 H           0.4125    0.3233   -0.3914 H       1  UNL1        0.0560
     13 H          -0.2030   -0.0567    1.2712 H       1  UNL1        0.0560
@<TRIPOS>BOND
     1     1     2    1
     2     2     3    1
     3     2     4    1
     4     2     5    1
     5     3     6    1
     6     3     7    1
     7     3     8    1
     8     1     9    1
     9     1    10    1
    10     1    11    1
    11     6     9    1
    12     6    12    1
    13     6    13    1
